#
# MT3DMS v5 Name file for test case
#

# Standard output file
LIST  0 ex.m3d

# Transport package input files
BTN   0 ex.btn
ADV   0 ex.adv
DSP   0 ex.dsp
SSM   0 ex.ssm
GCG   0 ex.gcg
RCT   0 ex.rct

# Flow-Transport Link input file
FTL   0 ex.ftl2 free

# Uncomment the following lines to override
# the default names of optional MT3DMS output files
# mt3d001.ucn, mt3d001s.ucn, mt3d001.obs, mt3d001.mas, mt3d.cnf.
# The unit numbers for these files are preset in the
# MT3DMS code.

data(binary) 201 ex7.ucn
data(binary) 301 ex7s.ucn
data         401 ex7.obs
data         601 ex7.mas
data         17  ex7.cnf
data       1000       ex.crch1
data       1001       ex.crch2
data       1002       ex.crch3
data       1003       ex.crch4
data       1004       ex.crch5
data       1005       ex.crch6
data       1006       ex.crch7
data       1007       ex.crch8
data       1008       ex.crch9
data       1009       ex.crch10
data       1010       ex.crch11
data       1011       ex.crch12
data       1012       ex.crch13
data       1013       ex.crch14
data       1014       ex.crch15
data       1015       ex.crch16
data       1016       ex.crch17
data       1017       ex.crch18
data       1018       ex.crch19
data       1019       ex.crch20
data       1020       ex.crch21
data       1021       ex.crch22
data       1022       ex.crch23
data       1023       ex.crch24
data       1024       ex.crch25
data       1025       ex.crch26
data       1026       ex.crch27
data       1027       ex.crch28
data       1028       ex.crch29
data       1029       ex.crch30
data       1030       ex.crch31
data       1031       ex.crch32
data       1032       ex.crch33
data       1033       ex.crch34
data       1034       ex.crch35
data       1035       ex.crch36
data       1036       ex.crch37
data       1037       ex.crch38
data       1038       ex.crch39
data       1039       ex.crch40
data       1040       ex.crch41
data       1041       ex.crch42
data       1042       ex.crch43
data       1043       ex.crch44
data       1044       ex.crch45
data       1045       ex.crch46
data       1046       ex.crch47
data       1047       ex.crch48
data       1048       ex.crch49
data       1049       ex.crch50
data       1050       ex.crch51
data       1051       ex.crch52
data       1052       ex.crch53
data       1053       ex.crch54
data       1054       ex.crch55
data       1055       ex.crch56
data       1056       ex.crch57
data       1057       ex.crch58
data       1058       ex.crch59
data       1059       ex.crch60
data       1060       ex.crch61
data       1061       ex.crch62
data       1062       ex.crch63
data       1063       ex.crch64
data       1064       ex.crch65
data       1065       ex.crch66
data       1066       ex.crch67
data       1067       ex.crch68
data       1068       ex.crch69
data       1069       ex.crch70
data       1070       ex.crch71
data       1071       ex.crch72
data       1072       ex.crch73
data       1073       ex.crch74
data       1074       ex.crch75
data       1075       ex.crch76
data       1076       ex.crch77
data       1077       ex.crch78
data       1078       ex.crch79
data       1079       ex.crch80
data       1080       ex.crch81
data       1081       ex.crch82
data       1082       ex.crch83
data       1083       ex.crch84
data       1084       ex.crch85
data       1085       ex.crch86
data       1086       ex.crch87
data       1087       ex.crch88
data       1088       ex.crch89
data       1089       ex.crch90
data       1090       ex.crch91
data       1091       ex.crch92
data       1092       ex.crch93
data       1093       ex.crch94
data       1094       ex.crch95
data       1095       ex.crch96
data       1096       ex.crch97
data       1097       ex.crch98
data       1098       ex.crch99
data       1099       ex.crch100
data       1100       ex.crch101
data       1101       ex.crch102
data       1102       ex.crch103
data       1103       ex.crch104
data       1104       ex.crch105
data       1105       ex.crch106
data       1106       ex.crch107
data       1107       ex.crch108
data       1108       ex.crch109
data       1109       ex.crch110
data       1110       ex.crch111
data       1111       ex.crch112
data       1112       ex.crch113
data       1113       ex.crch114
data       1114       ex.crch115
data       1115       ex.crch116
data       1116       ex.crch117
data       1117       ex.crch118
data       1118       ex.crch119
data       1119       ex.crch120
data       1120       ex.crch121
data       1121       ex.crch122
data       1122       ex.crch123
data       1123       ex.crch124
data       1124       ex.crch125
data       1125       ex.crch126
data       1126       ex.crch127
data       1127       ex.crch128
data       1128       ex.crch129
data       1129       ex.crch130
data       1130       ex.crch131
data       1131       ex.crch132
data       1132       ex.crch133
data       1133       ex.crch134
data       1134       ex.crch135
data       1135       ex.crch136
data       1136       ex.crch137
data       1137       ex.crch138
data       1138       ex.crch139
data       1139       ex.crch140
data       1140       ex.crch141
data       1141       ex.crch142
data       1142       ex.crch143
data       1143       ex.crch144
data       1144       ex.crch145
data       1145       ex.crch146
data       1146       ex.crch147
data       1147       ex.crch148
data       1148       ex.crch149
data       1149       ex.crch150
data       1150       ex.crch151
data       1151       ex.crch152
data       1152       ex.crch153
data       1153       ex.crch154
data       1154       ex.crch155
data       1155       ex.crch156
data       1156       ex.crch157
data       1157       ex.crch158
data       1158       ex.crch159
data       1159       ex.crch160
data       1160       ex.crch161
data       1161       ex.crch162
data       1162       ex.crch163
data       1163       ex.crch164
data       1164       ex.crch165
data       1165       ex.crch166
data       1166       ex.crch167
data       1167       ex.crch168
data       1168       ex.crch169
data       1169       ex.crch170
data       1170       ex.crch171
data       1171       ex.crch172
data       1172       ex.crch173
data       1173       ex.crch174
data       1174       ex.crch175
data       1175       ex.crch176
data       1176       ex.crch177
data       1177       ex.crch178
data       1178       ex.crch179
data       1179       ex.crch180
data       1180       ex.crch181
data       1181       ex.crch182
data       1182       ex.crch183
data       1183       ex.crch184
data       1184       ex.crch185
data       1185       ex.crch186
data       1186       ex.crch187
data       1187       ex.crch188
data       1188       ex.crch189
data       1189       ex.crch190
data       1190       ex.crch191
data       1191       ex.crch192
data       1192       ex.crch193
data       1193       ex.crch194
data       1194       ex.crch195
data       1195       ex.crch196
data       1196       ex.crch197
data       1197       ex.crch198
data       1198       ex.crch199
data       1199       ex.crch200
data       1200       ex.crch201
data       1201       ex.crch202
data       1202       ex.crch203
data       1203       ex.crch204
data       1204       ex.crch205
data       1205       ex.crch206
data       1206       ex.crch207
data       1207       ex.crch208
data       1208       ex.crch209
data       1209       ex.crch210
data       1210       ex.crch211
data       1211       ex.crch212
data       1212       ex.crch213
data       1213       ex.crch214
data       1214       ex.crch215
data       1215       ex.crch216
data       1216       ex.crch217
data       1217       ex.crch218
data       1218       ex.crch219
data       1219       ex.crch220
data       1220       ex.crch221
data       1221       ex.crch222
data       1222       ex.crch223
data       1223       ex.crch224
data       1224       ex.crch225
data       1225       ex.crch226
data       1226       ex.crch227
data       1227       ex.crch228
data       1228       ex.crch229
data       1229       ex.crch230
data       1230       ex.crch231
data       1231       ex.crch232
data       1232       ex.crch233
data       1233       ex.crch234
data       1234       ex.crch235
data       1235       ex.crch236
data       1236       ex.crch237
data       1237       ex.crch238
data       1238       ex.crch239
data       1239       ex.crch240
data       1240       ex.crch241
data       1241       ex.crch242
data       1242       ex.crch243
data       1243       ex.crch244
data       1244       ex.crch245
data       1245       ex.crch246
data       1246       ex.crch247
data       1247       ex.crch248
data       1248       ex.crch249
data       1249       ex.crch250
data       1250       ex.crch251
data       1251       ex.crch252
data       1252       ex.crch253
data       1253       ex.crch254
data       1254       ex.crch255
data       1255       ex.crch256
data       1256       ex.crch257
data       1257       ex.crch258
data       1258       ex.crch259
data       1259       ex.crch260
data       1260       ex.crch261
data       1261       ex.crch262
data       1262       ex.crch263
data       1263       ex.crch264
data       1264       ex.crch265
data       1265       ex.crch266
data       1266       ex.crch267
data       1267       ex.crch268
data       1268       ex.crch269
data       1269       ex.crch270
data       1270       ex.crch271
data       1271       ex.crch272
data       1272       ex.crch273
data       1273       ex.crch274
data       1274       ex.crch275
data       1275       ex.crch276
data       1276       ex.crch277
data       1277       ex.crch278
data       1278       ex.crch279
data       1279       ex.crch280
data       1280       ex.crch281
data       1281       ex.crch282
data       1282       ex.crch283
data       1283       ex.crch284
data       1284       ex.crch285
data       1285       ex.crch286
data       1286       ex.crch287
data       1287       ex.crch288
data       1288       ex.crch289
data       1289       ex.crch290
data       1290       ex.crch291
data       1291       ex.crch292
data       1292       ex.crch293
data       1293       ex.crch294
data       1294       ex.crch295
data       1295       ex.crch296
data       1296       ex.crch297
data       1297       ex.crch298
data       1298       ex.crch299
data       1299       ex.crch300
data       1300       ex.crch301
data       1301       ex.crch302
data       1302       ex.crch303
data       1303       ex.crch304
data       1304       ex.crch305
data       1305       ex.crch306
data       1306       ex.crch307
data       1307       ex.crch308
data       1308       ex.crch309
data       1309       ex.crch310
data       1310       ex.crch311
data       1311       ex.crch312
data       1312       ex.crch313
data       1313       ex.crch314
data       1314       ex.crch315
data       1315       ex.crch316
data       1316       ex.crch317
data       1317       ex.crch318
data       1318       ex.crch319
data       1319       ex.crch320
data       1320       ex.crch321
data       1321       ex.crch322
data       1322       ex.crch323
data       1323       ex.crch324
data       1324       ex.crch325
data       1325       ex.crch326
data       1326       ex.crch327
data       1327       ex.crch328
data       1328       ex.crch329
data       1329       ex.crch330
data       1330       ex.crch331
data       1331       ex.crch332
data       1332       ex.crch333
data       1333       ex.crch334
data       1334       ex.crch335
data       1335       ex.crch336
data       1336       ex.crch337
data       1337       ex.crch338
data       1338       ex.crch339
data       1339       ex.crch340
data       1340       ex.crch341
data       1341       ex.crch342
data       1342       ex.crch343
data       1343       ex.crch344
data       1344       ex.crch345
data       1345       ex.crch346
data       1346       ex.crch347
data       1347       ex.crch348
data       1348       ex.crch349
data       1349       ex.crch350
data       1350       ex.crch351
data       1351       ex.crch352
data       1352       ex.crch353
data       1353       ex.crch354
data       1354       ex.crch355
data       1355       ex.crch356
data       1356       ex.crch357
data       1357       ex.crch358
data       1358       ex.crch359
data       1359       ex.crch360
data       1360       ex.crch361
data       1361       ex.crch362
data       1362       ex.crch363
data       1363       ex.crch364
data       1364       ex.crch365
data       1365       ex.crch366
data       1366       ex.crch367
data       1367       ex.crch368
data       1368       ex.crch369
data       1369       ex.crch370
data       1370       ex.crch371
data       1371       ex.crch372
data       1372       ex.crch373
data       1373       ex.crch374
data       1374       ex.crch375
data       1375       ex.crch376
data       1376       ex.crch377
data       1377       ex.crch378
data       1378       ex.crch379
data       1379       ex.crch380
data       1380       ex.crch381
data       1381       ex.crch382
data       1382       ex.crch383
data       1383       ex.crch384
data       1384       ex.crch385
data       1385       ex.crch386
data       1386       ex.crch387
data       1387       ex.crch388
data       1388       ex.crch389
data       1389       ex.crch390
data       1390       ex.crch391
data       1391       ex.crch392
data       1392       ex.crch393
data       1393       ex.crch394
data       1394       ex.crch395
data       1395       ex.crch396
data       1396       ex.crch397
data       1397       ex.crch398
data       1398       ex.crch399
data       1399       ex.crch400
data       1400       ex.crch401
data       1401       ex.crch402
data       1402       ex.crch403
data       1403       ex.crch404
data       1404       ex.crch405
data       1405       ex.crch406
data       1406       ex.crch407
data       1407       ex.crch408
data       1408       ex.crch409
data       1409       ex.crch410
data       1410       ex.crch411
data       1411       ex.crch412
data       1412       ex.crch413
data       1413       ex.crch414
data       1414       ex.crch415
data       1415       ex.crch416
data       1416       ex.crch417
data       1417       ex.crch418
data       1418       ex.crch419
data       1419       ex.crch420
data       1420       ex.crch421
data       1421       ex.crch422
data       1422       ex.crch423
data       1423       ex.crch424
data       1424       ex.crch425
data       1425       ex.crch426
data       1426       ex.crch427
data       1427       ex.crch428
data       1428       ex.crch429
data       1429       ex.crch430
data       1430       ex.crch431
data       1431       ex.crch432
data       1432       ex.crch433
data       1433       ex.crch434
data       1434       ex.crch435
data       1435       ex.crch436
data       1436       ex.crch437
data       1437       ex.crch438
data       1438       ex.crch439
data       1439       ex.crch440
data       1440       ex.crch441
data       1441       ex.crch442
data       1442       ex.crch443
data       1443       ex.crch444
data       1444       ex.crch445
data       1445       ex.crch446
data       1446       ex.crch447
data       1447       ex.crch448
data       1448       ex.crch449
data       1449       ex.crch450
data       1450       ex.crch451
data       1451       ex.crch452
data       1452       ex.crch453
data       1453       ex.crch454
data       1454       ex.crch455
data       1455       ex.crch456
data       1456       ex.crch457
data       1457       ex.crch458
data       1458       ex.crch459
data       1459       ex.crch460
data       1460       ex.crch461
data       1461       ex.crch462
data       1462       ex.crch463
data       1463       ex.crch464
data       1464       ex.crch465
data       1465       ex.crch466
data       1466       ex.crch467
data       1467       ex.crch468
data       1468       ex.crch469
data       1469       ex.crch470
data       1470       ex.crch471
data       1471       ex.crch472
data       1472       ex.crch473
data       1473       ex.crch474
data       1474       ex.crch475
data       1475       ex.crch476
data       1476       ex.crch477
data       1477       ex.crch478
data       1478       ex.crch479
data       1479       ex.crch480
data       1480       ex.crch481
data       1481       ex.crch482
data       1482       ex.crch483
data       1483       ex.crch484
data       1484       ex.crch485
data       1485       ex.crch486
data       1486       ex.crch487
data       1487       ex.crch488
data       1488       ex.crch489
data       1489       ex.crch490
data       1490       ex.crch491
data       1491       ex.crch492
data       1492       ex.crch493
data       1493       ex.crch494
data       1494       ex.crch495
data       1495       ex.crch496
data       1496       ex.crch497
data       1497       ex.crch498
data       1498       ex.crch499
data       1499       ex.crch500
data       1500       ex.crch501
data       1501       ex.crch502
data       1502       ex.crch503
data       1503       ex.crch504
data       1504       ex.crch505
data       1505       ex.crch506
data       1506       ex.crch507
data       1507       ex.crch508
data       1508       ex.crch509
data       1509       ex.crch510
data       1510       ex.crch511
data       1511       ex.crch512
data       1512       ex.crch513
data       1513       ex.crch514
data       1514       ex.crch515
data       1515       ex.crch516
data       1516       ex.crch517
data       1517       ex.crch518
data       1518       ex.crch519
data       1519       ex.crch520
data       1520       ex.crch521
data       1521       ex.crch522
data       1522       ex.crch523
data       1523       ex.crch524
data       1524       ex.crch525
data       1525       ex.crch526
data       1526       ex.crch527
data       1527       ex.crch528
data       1528       ex.crch529
data       1529       ex.crch530
data       1530       ex.crch531
data       1531       ex.crch532
data       1532       ex.crch533
data       1533       ex.crch534
data       1534       ex.crch535
data       1535       ex.crch536
data       1536       ex.crch537
data       1537       ex.crch538
data       1538       ex.crch539
data       1539       ex.crch540
data       1540       ex.crch541
data       1541       ex.crch542
data       1542       ex.crch543
data       1543       ex.crch544
data       1544       ex.crch545
data       1545       ex.crch546
data       1546       ex.crch547
data       1547       ex.crch548
data       1548       ex.crch549
data       1549       ex.crch550
data       1550       ex.crch551
data       1551       ex.crch552
data       1552       ex.crch553
data       1553       ex.crch554
data       1554       ex.crch555
data       1555       ex.crch556
data       1556       ex.crch557
data       1557       ex.crch558
data       1558       ex.crch559
data       1559       ex.crch560
data       1560       ex.crch561
data       1561       ex.crch562
data       1562       ex.crch563
data       1563       ex.crch564
data       1564       ex.crch565
data       1565       ex.crch566
data       1566       ex.crch567
data       1567       ex.crch568
data       1568       ex.crch569
data       1569       ex.crch570
data       1570       ex.crch571
data       1571       ex.crch572
data       1572       ex.crch573
data       1573       ex.crch574
data       1574       ex.crch575
data       1575       ex.crch576
data       1576       ex.crch577
data       1577       ex.crch578
data       1578       ex.crch579
data       1579       ex.crch580
data       1580       ex.crch581
data       1581       ex.crch582
data       1582       ex.crch583
data       1583       ex.crch584
data       1584       ex.crch585
data       1585       ex.crch586
data       1586       ex.crch587
data       1587       ex.crch588
data       1588       ex.crch589
data       1589       ex.crch590
data       1590       ex.crch591
data       1591       ex.crch592
data       1592       ex.crch593
data       1593       ex.crch594
data       1594       ex.crch595
data       1595       ex.crch596
data       1596       ex.crch597
data       1597       ex.crch598
data       1598       ex.crch599
data       1599       ex.crch600
data       1600       ex.crch601
data       1601       ex.crch602
data       1602       ex.crch603
data       1603       ex.crch604
data       1604       ex.crch605
data       1605       ex.crch606
data       1606       ex.crch607
data       1607       ex.crch608
data       1608       ex.crch609
data       1609       ex.crch610
data       1610       ex.crch611
data       1611       ex.crch612
data       1612       ex.crch613
data       1613       ex.crch614
data       1614       ex.crch615
data       1615       ex.crch616
data       1616       ex.crch617
data       1617       ex.crch618
data       1618       ex.crch619
data       1619       ex.crch620
data       1620       ex.crch621
data       1621       ex.crch622
data       1622       ex.crch623
data       1623       ex.crch624
data       1624       ex.crch625
data       1625       ex.crch626
data       1626       ex.crch627
data       1627       ex.crch628
data       1628       ex.crch629
data       1629       ex.crch630
data       1630       ex.crch631
data       1631       ex.crch632
data       1632       ex.crch633
data       1633       ex.crch634
data       1634       ex.crch635
data       1635       ex.crch636
data       1636       ex.crch637
data       1637       ex.crch638
data       1638       ex.crch639
data       1639       ex.crch640
data       1640       ex.crch641
data       1641       ex.crch642
data       1642       ex.crch643
data       1643       ex.crch644
data       1644       ex.crch645
data       1645       ex.crch646
data       1646       ex.crch647
data       1647       ex.crch648
data       1648       ex.crch649
data       1649       ex.crch650
data       1650       ex.crch651
data       1651       ex.crch652
data       1652       ex.crch653
data       1653       ex.crch654
data       1654       ex.crch655
data       1655       ex.crch656
data       1656       ex.crch657
data       1657       ex.crch658
data       1658       ex.crch659
data       1659       ex.crch660
data       1660       ex.crch661
data       1661       ex.crch662
data       1662       ex.crch663
data       1663       ex.crch664
data       1664       ex.crch665
data       1665       ex.crch666
data       1666       ex.crch667
data       1667       ex.crch668
data       1668       ex.crch669
data       1669       ex.crch670
data       1670       ex.crch671
data       1671       ex.crch672
data       1672       ex.crch673
data       1673       ex.crch674
data       1674       ex.crch675
data       1675       ex.crch676
data       1676       ex.crch677
data       1677       ex.crch678
data       1678       ex.crch679
data       1679       ex.crch680
data       1680       ex.crch681
data       1681       ex.crch682
data       1682       ex.crch683
data       1683       ex.crch684
data       1684       ex.crch685
data       1685       ex.crch686
data       1686       ex.crch687
data       1687       ex.crch688
data       1688       ex.crch689
data       1689       ex.crch690
data       1690       ex.crch691
data       1691       ex.crch692
data       1692       ex.crch693
data       1693       ex.crch694
data       1694       ex.crch695
data       1695       ex.crch696
data       1696       ex.crch697
data       1697       ex.crch698
data       1698       ex.crch699
data       1699       ex.crch700
data       1700       ex.crch701
data       1701       ex.crch702
data       1702       ex.crch703
data       1703       ex.crch704
data       1704       ex.crch705
data       1705       ex.crch706
data       1706       ex.crch707
data       1707       ex.crch708
data       1708       ex.crch709
data       1709       ex.crch710
data       1710       ex.crch711
data       1711       ex.crch712
data       1712       ex.crch713
data       1713       ex.crch714
data       1714       ex.crch715
data       1715       ex.crch716
data       1716       ex.crch717
data       1717       ex.crch718
data       1718       ex.crch719
data       1719       ex.crch720
data       1720       ex.crch721
data       1721       ex.crch722
data       1722       ex.crch723
data       1723       ex.crch724
data       1724       ex.crch725
data       1725       ex.crch726
data       1726       ex.crch727
data       1727       ex.crch728
data       1728       ex.crch729
data       1729       ex.crch730
data       1730       ex.crch731
data       1731       ex.crch732
data       1732       ex.crch733
data       1733       ex.crch734
data       1734       ex.crch735
data       1735       ex.crch736
data       1736       ex.crch737
data       1737       ex.crch738
data       1738       ex.crch739
data       1739       ex.crch740
data       1740       ex.crch741
data       1741       ex.crch742
data       1742       ex.crch743
data       1743       ex.crch744
data       1744       ex.crch745
data       1745       ex.crch746
data       1746       ex.crch747
data       1747       ex.crch748
data       1748       ex.crch749
data       1749       ex.crch750
data       1750       ex.crch751
data       1751       ex.crch752
data       1752       ex.crch753
data       1753       ex.crch754
data       1754       ex.crch755
data       1755       ex.crch756
data       1756       ex.crch757
data       1757       ex.crch758
data       1758       ex.crch759
data       1759       ex.crch760
data       1760       ex.crch761
data       1761       ex.crch762
data       1762       ex.crch763
data       1763       ex.crch764
data       1764       ex.crch765
data       1765       ex.crch766
data       1766       ex.crch767
data       1767       ex.crch768
data       1768       ex.crch769
data       1769       ex.crch770
data       1770       ex.crch771
data       1771       ex.crch772
data       1772       ex.crch773
data       1773       ex.crch774
data       1774       ex.crch775
data       1775       ex.crch776
data       1776       ex.crch777
data       1777       ex.crch778
data       1778       ex.crch779
data       1779       ex.crch780
data       1780       ex.crch781
data       1781       ex.crch782
data       1782       ex.crch783
data       1783       ex.crch784
data       1784       ex.crch785
data       1785       ex.crch786
data       1786       ex.crch787
data       1787       ex.crch788
data       1788       ex.crch789
data       1789       ex.crch790
data       1790       ex.crch791
data       1791       ex.crch792
data       1792       ex.crch793
data       1793       ex.crch794
data       1794       ex.crch795
data       1795       ex.crch796
data       1796       ex.crch797
data       1797       ex.crch798
data       1798       ex.crch799
data       1799       ex.crch800
data       1800       ex.crch801
data       1801       ex.crch802
data       1802       ex.crch803
data       1803       ex.crch804
data       1804       ex.crch805
data       1805       ex.crch806
data       1806       ex.crch807
data       1807       ex.crch808
data       1808       ex.crch809
data       1809       ex.crch810
data       1810       ex.crch811
data       1811       ex.crch812
data       1812       ex.crch813
data       1813       ex.crch814
data       1814       ex.crch815
data       1815       ex.crch816
data       1816       ex.crch817
data       1817       ex.crch818
data       1818       ex.crch819
data       1819       ex.crch820
data       1820       ex.crch821
data       1821       ex.crch822
data       1822       ex.crch823
data       1823       ex.crch824
data       1824       ex.crch825
data       1825       ex.crch826
data       1826       ex.crch827
data       1827       ex.crch828
data       1828       ex.crch829
data       1829       ex.crch830
data       1830       ex.crch831
data       1831       ex.crch832
data       1832       ex.crch833
data       1833       ex.crch834
data       1834       ex.crch835
data       1835       ex.crch836
data       1836       ex.crch837
data       1837       ex.crch838
data       1838       ex.crch839
data       1839       ex.crch840
data       1840       ex.crch841
data       1841       ex.crch842
data       1842       ex.crch843
data       1843       ex.crch844
data       1844       ex.crch845
data       1845       ex.crch846
data       1846       ex.crch847
data       1847       ex.crch848
data       1848       ex.crch849
data       1849       ex.crch850
data       1850       ex.crch851
data       1851       ex.crch852
data       1852       ex.crch853
data       1853       ex.crch854
data       1854       ex.crch855
data       1855       ex.crch856
data       1856       ex.crch857
data       1857       ex.crch858
data       1858       ex.crch859
data       1859       ex.crch860
data       1860       ex.crch861
data       1861       ex.crch862
data       1862       ex.crch863
data       1863       ex.crch864
data       1864       ex.crch865
data       1865       ex.crch866